src/tests/data/grids/ucte/IEEE 30 bus.uct
##C 2007.05.01
*******************************************************
	Created by Transmission Network Analyzer_FORsee (TNA_FORsee). Made by EKC Belgrade & DMS Group Novi Sad, 2012.
	32  nodes
	39  lines
	4  transformers
	4  transformer regulations
	0  tap changers
*******************************************************

##N
##Z1
GLEN L4N 1            0 3 139.92       0       0 -260.95  16.787   10000  -10000       0       0     0       0       0       0  
CLAYTO4  2            0 2 137.94    21.7    12.7     -40     -50   10000  -10000      40     -50     0       0       0       0  
3     4  3            0 0 134.74     2.4     1.2       0       0       0       0       0       0     0       0       0       0  
HANCOC4  4            0 0 133.55     7.6     1.6       0       0       0       0       0       0     0       0       0       0  
FIELDA4E 5            0 2 133.32    94.2      19       0  -36.85   10000  -10000      40     -40     0       0       0       0  
ROANOK4  6            0 0 133.35       0       0       0       0       0       0       0       0     0       0       0       0  
7     4  7            0 0 132.31    22.8    10.9       0       0       0       0       0       0     0       0       0       0  
REUSEN4  8            0 2 133.32      30      30       0 -37.144   10000  -10000      10     -40     0       0       0       0  
ROANOK7  9            0 0 1.0509       0       0       0       0       0       0       0       0     0       0       0       0  
ROANOK7A 10           0 0 34.489     5.8       2       0       0       0       0       0       0     0       0       0       0  
ROANOK7B 11           0 2 11.902       0       0       0 -16.172   10000  -10000       6     -24     0       0       0       0  
HANCOC7  12           0 0 34.885    11.2     7.5       0       0       0       0       0       0     0       0       0       0  
HANCOC7A 13           0 2 11.781       0       0       0 -10.619   10000  -10000       6     -24     0       0       0       0  
14    7  14           0 0 34.395     6.2     1.6       0       0       0       0       0       0     0       0       0       0  
15    7  15           0 0 34.243     8.2     2.5       0       0       0       0       0       0     0       0       0       0  
16    7  16           0 0 34.465     3.5     1.8       0       0       0       0       0       0     0       0       0       0  
17    7  17           0 0 34.317       9     5.8       0       0       0       0       0       0     0       0       0       0  
18    7  18           0 0 33.929     3.2     0.9       0       0       0       0       0       0     0       0       0       0  
19    7  19           0 0 33.846     9.5     3.4       0       0       0       0       0       0     0       0       0       0  
20    7  20           0 0 33.981     2.2     0.7       0       0       0       0       0       0     0       0       0       0  
21    7  21           0 0  34.08    17.5    11.2       0       0       0       0       0       0     0       0       0       0  
22    7  22           0 0 34.098       0       0       0       0       0       0       0       0     0       0       0       0  
23    7  23           0 0 33.897     3.2     1.6       0       0       0       0       0       0     0       0       0       0  
24    7  24           0 0 33.712     8.7     6.7       0       0       0       0       0       0     0       0       0       0  
25    7  25           0 0 33.572       0       0       0       0       0       0       0       0     0       0       0       0  
26    7  26           0 0 32.989     3.5     2.3       0       0       0       0       0       0     0       0       0       0  
CLOVER7L 27           0 0 33.767       0       0       0       0       0       0       0       0     0       0       0       0  
CLOVER4L 28           0 0  132.9       0       0       0       0       0       0       0       0     0       0       0       0  
29    7  29           0 0 33.113     2.4     0.9       0       0       0       0       0       0     0       0       0       0  
30    7  30           0 0 32.734    10.6     1.9       0       0       0       0       0       0     0       0       0       0  
10____7Q Fict. shunt  1 0     33       0       0       0       0       0       0       0       0     0       0       0       0  
24____7Q Fict. shunt  1 0     33       0       0       0       0       0       0       0       0     0       0       0       0  
##ZXX
##L
GLEN L4N CLAYTO4  1 0 3.3454 10.019 303.0303    130 _AC_1_2_CKT_
GLEN L4N 3     4  1 0 7.8756 28.784 234.1598    130 _AC_1_3_CKT_
CLAYTO4  HANCOC4  1 0 9.9317 30.265 211.2029     65 _AC_2_4_CKT_
CLAYTO4  FIELDA4E 1 0 8.2241 34.552  239.899    130 _AC_2_5_CKT_
CLAYTO4  ROANOK4  1 0 10.123 30.719 214.6465     65 _AC_2_6_CKT_
3     4  HANCOC4  1 0    2.3 6.6037 48.20936    130 _AC_3_4_CKT_
HANCOC4  ROANOK4  1 0 2.0735 7.2135 51.65289     90 _AC_4_6_CKT_
FIELDA4E 7     4  1 0  8.015 20.212 117.0799     70 _AC_5_7_CKT_
ROANOK4  7     4  1 0 4.6522 14.288 97.56657    130 _AC_6_7_CKT_
ROANOK4  REUSEN4  1 0 2.0909 7.3181 51.65289     32 _AC_6_8_CKT_
ROANOK4  CLOVER4L 1 0 2.9447 10.437 74.60973      0 _AC_6_28_CKT
REUSEN4  CLOVER4L 1 0 11.082 34.848 245.6382      0 _AC_8_28_CKT
ROANOK7  ROANOK7A 1 0      0 0.0011        0      0 _AC_9_10_CKT
ROANOK7  ROANOK7B 1 0      0 .00208        0     65 _AC_9_11_CKT
ROANOK7A 17    7  1 0 .35284 .92021        0      0 _AC_10_17_CK
ROANOK7A 20    7  1 0 1.0193  2.276        0     32 _AC_10_20_CK
ROANOK7A 21    7  1 0 .37897 .81566        0      0 _AC_10_21_CK
ROANOK7A 22    7  1 0  .7917 1.6324        0      0 _AC_10_22_CK
HANCOC7  HANCOC7A 1 0      0 1.5246        0     65 _AC_12_13_CK
HANCOC7  14    7  1 0 1.3406 2.7868        0      0 _AC_12_14_CK
HANCOC7  15    7  1 0 .72092 1.4201        0     32 _AC_12_15_CK
HANCOC7  16    7  1 0 1.0291 2.1638        0     16 _AC_12_16_CK
14    7  15    7  1 0 2.4067 2.1747        0     16 _AC_14_15_CK
15    7  18    7  1 0 1.1685 2.3795        0     16 _AC_15_18_CK
15    7  23    7  1 0  1.089 2.1998        0      0 _AC_15_23_CK
16    7  17    7  1 0 .57064 2.0941        0     16 _AC_16_17_CK
18    7  19    7  1 0 .69587  1.407        0     16 _AC_18_19_CK
19    7  20    7  1 0 .37026 .74052        0     16 _AC_19_20_CK
21    7  22    7  1 0 .12632   .257        0      0 _AC_21_22_CK
22    7  24    7  1 0 1.2524 1.9493        0      0 _AC_22_24_CK
23    7  24    7  1 0 1.4375 2.9403        0      0 _AC_23_24_CK
24    7  25    7  1 0 2.0528  3.585        0      0 _AC_24_25_CK
25    7  26    7  1 0 2.7704 4.1382        0      0 _AC_25_26_CK
25    7  CLOVER7L 1 0 1.1903 2.2727        0      0 _AC_25_27_CK
CLOVER7L 29    7  1 0 2.3936 4.5226        0      0 _AC_27_29_CK
CLOVER7L 30    7  1 0  3.487 6.5634        0      0 _AC_27_30_CK
29    7  30    7  1 0 2.6125 4.9364        0      0 _AC_29_30_CK
ROANOK7A 10____7Q 1 1      0   0.05  17447.2        
24    7  24____7Q 1 1      0   0.05 3948.577        
##T
HANCOC4  HANCOC7  1 0   123    33   100      0 38.745        0      0    305 _PT_4_12_CKT
ROANOK4  ROANOK7  1 0 129.1     1   100      0 34.665        0      0    291 _PT_6_9_CKT_
ROANOK4  ROANOK7A 2 0 127.9    33   100      0 90.964        0      0    144 _PT_6_10_CKT
CLOVER4L CLOVER7L 1 0 127.8    33   100      0 64.654        0      0      0 _PT_28_27_CK
##R
##TT
##E
